3
Properties=species:S:1:pos:R:3:forces:R:3:energies:R:1 energy=-2.0146856350933526 free_energy=-2.0146856350933526 pbc="F F F"
C        0.00000000       0.00000000       0.00000000       0.00000000       0.00000000       0.00000000      -0.99445686
H       -1.12097589       0.00000000       0.00000000      -0.00314638       0.00000000       0.00000000      -0.51011439
H        1.12097589       0.00000000       0.00000000       0.00314638       0.00000000       0.00000000      -0.51011439
